code/opendss/Bus_37/ieee37_VLL.Txt

SYMMETRICAL COMPONENT PHASE-PHASE VOLTAGES BY BUS (for 3-phase buses)

Bus        Mag:   V1 (kV)    p.u.     V2 (kV)   %V2/V1    V0 (kV)    %V0/V1

sourcebus       230          1  0.0005829  0.0002534 2.058E-014 8.948E-015
799           4.472     0.9316    0.08025      1.795 3.216E-016 7.191E-015
709           4.692     0.9774     0.1382      2.945 6.431E-016 1.371E-014
775          0.4692     0.9774    0.01382      2.945 8.286E-017 1.766E-014
701           4.781     0.9961     0.1143       2.39 6.431E-016 1.345E-014
702           4.748     0.9891     0.1213      2.556 7.28E-016 1.533E-014
705           4.742      0.988     0.1209      2.549 8.879E-016 1.872E-014
713            4.74     0.9874     0.1209      2.551 5.084E-016 1.073E-014
703            4.72     0.9832     0.1297      2.749 4.099E-016 8.685E-015
727           4.715     0.9823     0.1308      2.775 5.684E-016 1.206E-014
730           4.698     0.9788     0.1365      2.905 7.19E-016 1.53E-014
704            4.73     0.9854     0.1187      2.509 5.684E-016 1.202E-014
714           4.729     0.9852     0.1187       2.51 5.684E-016 1.202E-014
720           4.719      0.983     0.1156       2.45 8.198E-016 1.737E-014
742            4.74     0.9876     0.1191      2.512 8.879E-016 1.873E-014
712           4.741     0.9877      0.122      2.573 9.647E-016 2.035E-014
706           4.718     0.9828     0.1147      2.432 5.084E-016 1.078E-014
725           4.717     0.9826     0.1139      2.415 9.647E-016 2.045E-014
707           4.705     0.9802     0.1052      2.237 4.099E-016 8.712E-015
724           4.703     0.9797     0.1031      2.192 6.122E-016 1.302E-014
722           4.703     0.9799     0.1043      2.217 7.626E-016 1.621E-014
708           4.682     0.9755     0.1419       3.03 7.19E-016 1.536E-014
733           4.674     0.9737     0.1451      3.105 7.19E-016 1.538E-014
732           4.681     0.9753     0.1425      3.045 5.684E-016 1.214E-014
731           4.689      0.977     0.1363      2.907 8.198E-016 1.748E-014
710           4.655     0.9699     0.1511      3.246 5.684E-016 1.221E-014
735           4.654     0.9696      0.152      3.265 8.198E-016 1.761E-014
736           4.651     0.9691     0.1473      3.168 7.28E-016 1.565E-014
711           4.643     0.9674     0.1589      3.423 5.684E-016 1.224E-014
741           4.643     0.9672     0.1595      3.435 7.626E-016 1.643E-014
740           4.642     0.9671     0.1597       3.44 6.431E-016 1.385E-014
718           4.726     0.9846     0.1196      2.531 8.198E-016 1.735E-014
744           4.713     0.9818     0.1311      2.782 8.198E-016 1.74E-014
734            4.66     0.9709     0.1505       3.23 7.626E-016 1.636E-014
737            4.65     0.9688      0.155      3.333 8.879E-016 1.909E-014
738           4.646     0.9679     0.1572      3.384 9.713E-016 2.091E-014
728           4.711     0.9814     0.1312      2.784 7.28E-016 1.545E-014
729           4.712     0.9816     0.1314      2.789 6.431E-016 1.365E-014
799r          4.845      1.009     0.1003      2.069 8.879E-016 1.833E-014
